FoamFile
{
    version     2.0;
    format      ascii;
    arch        "LSB;label=32;scalar=64";
    class       volScalarField;
    location    "0";
    object      p;
}

dimensions      [0 2 -2 0 0 0 0];

internalField   uniform 0;

boundaryField
{
    outlet
    {
        type            fixedValue;
        value           uniform 0;
    }

    upperWall
    {
        type            symmetryPlane;
    }

    lowerWall
    {
        type            symmetryPlane;
    }

    inlet
    {
        type            zeroGradient;
    }

    cylinder
    {
        type            zeroGradient;
    }

    frontAndBack
    {
        type            empty;
    }
}
