/*--------------------------------*- C++ -*----------------------------------*\
| =========                 |                                                 |
| \\      /  F ield         | OpenFOAM: The Open Source CFD Toolbox           |
|  \\    /   O peration     | Version:  2312                                  |
|   \\  /    A nd           | Website:  www.openfoam.com                      |
|    \\/     M anipulation  |                                                 |
\*---------------------------------------------------------------------------*/
FoamFile
{
    version     2.0;
    format      ascii;
    arch        "LSB;label=32;scalar=64";
    class       polyBoundaryMesh;
    location    "constant/polyMesh";
    object      boundary;
}
// * * * * * * * * * * * * * * * * * * * * * * * * * * * * * * * * * * * * * //

6
(
    outlet
    {
        type            patch;
        nFaces          40;
        startFace       4490;
    }
    upperWall
    {
        type            symmetryPlane;
        inGroups        1(symmetryPlane);
        nFaces          50;
        startFace       4530;
    }
    lowerWall
    {
        type            symmetryPlane;
        inGroups        1(symmetryPlane);
        nFaces          50;
        startFace       4580;
    }
    inlet
    {
        type            patch;
        nFaces          40;
        startFace       4630;
    }
    cylinder
    {
        type            wall;
        inGroups        1(wall);
        nFaces          40;
        startFace       4670;
    }
    frontAndBack
    {
        type            empty;
        inGroups        1(empty);
        nFaces          4600;
        startFace       4710;
    }
)

// ************************************************************************* //
