FoamFile
{
    version     2.0;
    format      ascii;
    arch        "LSB;label=32;scalar=64";
    class       volVectorField;
    location    "0";
    object      U;
}

dimensions      [0 1 -1 0 0 0 0];

internalField   uniform (0.9848 0.1736 0);

boundaryField
{
    outlet
    {
        type            zeroGradient;
    }

    upperWall
    {
        type            symmetryPlane;
    }

    lowerWall
    {
        type            symmetryPlane;
    }

    inlet
    {
        type            fixedValue;
        value           uniform (0.9848 0.1736 0);
    }

    cylinder
    {
        type            fixedValue;
        value           uniform (0 0 0);
    }

    frontAndBack
    {
        type            empty;
    }
}FoamFile
{
    version     2.0;
    format      ascii;
    arch        "LSB;label=32;scalar=64";
    class       volVectorField;
    location    "0";
    object      U;
}

dimensions      [0 1 -1 0 0 0 0];

internalField   uniform (0.9848 0.1736 0);

boundaryField
{
    outlet
    {
        type            zeroGradient;
    }

    upperWall
    {
        type            symmetryPlane;
    }

    lowerWall
    {
        type            symmetryPlane;
    }

    inlet
    {
        type            fixedValue;
        value           uniform (0.9848 0.1736 0);
    }

    cylinder
    {
        type            fixedValue;
        value           uniform (0 0 0);
    }

    frontAndBack
    {
        type            empty;
    }
}
