/*--------------------------------*- C++ -*----------------------------------*\
| =========                 |                                                 |
| \\      /  F ield         | OpenFOAM: The Open Source CFD Toolbox           |
|  \\    /   O peration     | Version:  2512                                  |
|   \\  /    A nd           | Website:  www.openfoam.com                      |
|    \\/     M anipulation  |                                                 |
\*---------------------------------------------------------------------------*/
FoamFile
{
    version     2.0;
    format      ascii;
    arch        "LSB;label=32;scalar=64";
    class       polyBoundaryMesh;
    location    "constant/polyMesh";
    object      boundary;
}
// * * * * * * * * * * * * * * * * * * * * * * * * * * * * * * * * * * * * * //

6
(
    outlet
    {
        type            patch;
        nFaces          62;
        startFace       10785;
    }
    upperWall
    {
        type            symmetryPlane;
        inGroups        1(symmetryPlane);
        nFaces          77;
        startFace       10847;
    }
    lowerWall
    {
        type            symmetryPlane;
        inGroups        1(symmetryPlane);
        nFaces          77;
        startFace       10924;
    }
    inlet
    {
        type            patch;
        nFaces          62;
        startFace       11001;
    }
    cylinder
    {
        type            wall;
        inGroups        1(wall);
        nFaces          64;
        startFace       11063;
    }
    frontAndBack
    {
        type            empty;
        inGroups        1(empty);
        nFaces          10956;
        startFace       11127;
    }
)

// ************************************************************************* //
