/*--------------------------------*- C++ -*----------------------------------*\
| =========                 |                                                 |
| \\      /  F ield         | OpenFOAM: The Open Source CFD Toolbox           |
|  \\    /   O peration     | Version:  2312                                  |
|   \\  /    A nd           | Website:  www.openfoam.com                      |
|    \\/     M anipulation  |                                                 |
\*---------------------------------------------------------------------------*/
FoamFile
{
    version     2.0;
    format      ascii;
    arch        "LSB;label=32;scalar=64";
    class       polyBoundaryMesh;
    location    "constant/polyMesh";
    object      boundary;
}
// * * * * * * * * * * * * * * * * * * * * * * * * * * * * * * * * * * * * * //

6
(
    outlet
    {
        type            patch;
        nFaces          26;
        startFace       1810;
    }
    upperWall
    {
        type            symmetryPlane;
        inGroups        1(symmetryPlane);
        nFaces          32;
        startFace       1836;
    }
    lowerWall
    {
        type            symmetryPlane;
        inGroups        1(symmetryPlane);
        nFaces          32;
        startFace       1868;
    }
    inlet
    {
        type            patch;
        nFaces          26;
        startFace       1900;
    }
    cylinder
    {
        type            wall;
        inGroups        1(wall);
        nFaces          24;
        startFace       1926;
    }
    frontAndBack
    {
        type            empty;
        inGroups        1(empty);
        nFaces          1880;
        startFace       1950;
    }
)

// ************************************************************************* //
